
This summary file was generated by TurbSim (v2.00.07a-bjj, 14-Jun-2016) on 02-Jul-2025 at 20:47:10.


Runtime Options:

   4433456  Random seed #1
    RANLUX  Type of random number generator
         T  Output binary HH turbulence parameters?
         F  Output formatted turbulence parameters?
         F  Output AeroDyn HH files?
         F  Output AeroDyn FF files?
         T  Output BLADED FF files?
         F  Output tower data?
         F  Output formatted FF files?
         T  Output coherent turbulence time step file?
         F  Clockwise rotation when looking downwind?
 0 -  NONE  IEC turbulence models scaled to exact specified standard deviation


Turbine/Model Specifications:

         5  Vertical grid-point matrix dimension
         5  Horizontal grid-point matrix dimension
     0.050  Time step [seconds]
   600.000  Analysis time [seconds]
   600.000  Usable output time [seconds]
    90.000  Hub height [m]
    70.000  Grid height [m]
    70.000  Grid width [m]
     0.000  Vertical flow angle [degrees]
     0.000  Horizontal flow angle [degrees]


Meteorological Boundary Conditions:

    SMOOTH  RISO Smooth Terrain spectral model
       N/A  IEC standard
       N/A  IEC turbulence characteristic
       N/A  IEC turbulence type
       N/A  IEC Extreme Turbulence Model (ETM) "c" parameter [m/s]
       IEC  Wind profile type
    90.000  Reference height [m]
    11.400  Reference wind speed [m/s]
       N/A  Jet height [m]
     1.527  Power law exponent
     0.010  Surface roughness length [m]


Non-IEC Meteorological Boundary Conditions:

    45.000  Site latitude [degrees]
     0.050  Gradient Richardson number
     0.483  Friction or shear velocity [m/s]
       N/A  Mixing layer depth [m]
    -0.233  Mean hub u'w' Reynolds stress
       N/A  Mean hub u'v' Reynolds stress
       N/A  Mean hub v'w' Reynolds stress


Spatial Coherence Models:

   GENERAL  u-component coherence model
   GENERAL  v-component coherence model
   GENERAL  w-component coherence model
(   11.400,  0.00    )  u-component coherence parameters
(    8.550,  0.00    )  v-component coherence parameters
(    8.550,  0.00    )  w-component coherence parameters
     0.000  Coherence exponent


Coherent Turbulence Scaling Parameters:

.\EventData
            Name of the path containing the coherent turbulence data files
       les  Type of coherent turbulence data files
     1.000  Disturbance scale (ratio of wave height to rotor diameter)
     0.500  Fractional location of tower centerline from right
     0.500  Fractional location of hub height from the bottom of the dataset
    10.000  Minimum start time for coherent structures [seconds]


You have requested that the following file(s) be generated:

   test1.bin (binary hub-height turbulence-parameter file)
   test1.wnd (AeroDyn/BLADED full-field wnd file)
   test1.cts (coherent turbulence time step file)


Turbulence Simulation Scaling Parameter Summary:

   Turbulence model used                            =  RISO Smooth Terrain
   Gradient Richardson number                       =    0.050
   Monin-Obukhov (M-O) z/L parameter                =    0.067
   Monin-Obukhov (M-O) length scale                 = 1350.000 m
   Mean wind speed at hub height                    =   11.400 m/s

   Wind profile type                                =  Power law on rotor disk, logarithmic elsewhere
   Power law exponent                               =    1.527
   Mean shear across rotor disk                     =    0.192 (m/s)/m
   Assumed rotor diameter                           =   70.000 m
   Surface roughness length                         =    0.010 m

   Nyquist frequency of turbulent wind field        =   10.000 Hz

   Number of time steps in the FFT                  =    12000
   Number of time steps output                      =    12000
   Number of points simulated                       =       25


Mean Flow Angles:

   Vertical   =   0.0 degrees
   Horizontal =   0.0 degrees

Mean Wind Speed Profile:

   Height    Wind Speed   Horizontal Angle  Vertical Angle  U-comp (X)   V-comp (Y)   W-comp (Z)
     (m)        (m/s)         (degrees)       (degrees)       (m/s)        (m/s)        (m/s)   
   ------    ----------   ----------------  --------------  ----------   ----------   ----------
    125.0       18.83            0.00            0.00         18.83         0.00         0.00
    107.5       14.95            0.00            0.00         14.95         0.00         0.00
     90.0       11.40            0.00            0.00         11.40         0.00         0.00
     72.5        8.19            0.00            0.00          8.19         0.00         0.00
     55.0        5.37            0.00            0.00          5.37         0.00         0.00


Harvested Random Seeds after Generation of the Random Numbers:

      4181250 K 1
            0 K 2


Scaling statistics from the hub grid point:

   Cross-Component  Scaling Factor
   ---------------  --------------
   u'w'               -0.12744E+00
   u'v'                0.00000E+00
   v'w'                0.00000E+00


Hub-Height Simulated Turbulence Statistical Summary:

   Type of Wind        Min (m/s)   Mean (m/s)    Max (m/s)  Sigma (m/s)       TI (%)
   ----------------    ---------   ----------    ---------  -----------       ------
   Longitudinal (u)         8.02        11.40        14.97        1.151       10.095
   Lateral (v)             -3.89         0.00         3.45        0.949        8.326
   Vertical (w)            -2.12        -0.00         2.91        0.754        6.616
   U component              8.02        11.40        14.97        1.151       10.095
   V component             -3.89         0.00         3.45        0.949        8.326
   W component             -2.12        -0.00         2.91        0.754        6.616
   Horizontal (U&V)         8.03        11.44        15.07        1.144        9.997
   Total                    8.04        11.46        15.08        1.144        9.979

                       Min Reynolds     Mean Reynolds    Max Reynolds    Correlation
   Product             Stress (m/s)^2   Stress (m/s)^2   Stress (m/s)^2  Coefficient
   ----------------    --------------   --------------   --------------  -----------
   u'w'                     -5.308            -0.233             4.963        -0.269
   u'v'                     -5.942             0.247             6.868         0.226
   v'w'                     -4.933            -0.005             3.682        -0.007


   Friction Velocity (Ustar)  =      0.483 m/s
   Maximum Instantaneous TKE  =      8.651 (m/s)^2
   Maximum Instantaneous CTKE =      3.716 (m/s)^2


Grid Point Variance Summary:

   Y-coord  -35.00  -17.50    0.00   17.50   35.00

   Height   Standard deviation at grid points for the u component:
   125.00    1.228   1.228   1.222   1.261   1.174
   107.50    1.232   1.198   1.231   1.173   1.235
    90.00    1.161   1.242   1.151   1.179   1.144
    72.50    1.219   1.189   1.225   1.124   1.101
    55.00    1.205   1.098   1.087   1.292   1.325

   Height   Standard deviation at grid points for the v component:
   125.00    0.968   0.978   1.022   0.965   0.990
   107.50    0.987   0.964   0.944   0.991   1.010
    90.00    0.974   0.897   0.949   0.960   0.972
    72.50    1.007   0.970   0.933   0.913   0.994
    55.00    0.949   0.954   0.960   1.003   1.028

   Height   Standard deviation at grid points for the w component:
   125.00    0.776   0.789   0.805   0.765   0.775
   107.50    0.778   0.767   0.778   0.767   0.782
    90.00    0.788   0.808   0.754   0.785   0.753
    72.50    0.765   0.796   0.780   0.766   0.761
    55.00    0.765   0.807   0.756   0.807   0.787

   Mean standard deviation across all grid points:
      u component:    1.197 m/s
      v component:    0.971 m/s
      w component:    0.778 m/s


Average expected time between events =  269.844 seconds
Number of coherent events            =        5
Predicted length of coherent events  =   24.347 seconds
Length of coherent events            =   25.347 seconds
Maximum predicted event CTKE         =    6.179 (m/s)^2
Nyquist frequency of coherent events =   23.711 Hz


U-component (X) statistics from the interpolated hub point:

   Mean =  11.4000 m/s
   TI   =  10.0953 %


Normalizing Parameters for Binary Data (approximate statistics):

   UBar  =  11.4000 m/s
   TI(u) =  10.0953 %
   TI(v) =   8.3255 %
   TI(w) =   6.6156 %

   Height Offset =   0.0000 m
   Grid Base     =  55.0000 m

Creating a PERIODIC output file.


Processing complete.  0.125 CPU seconds used.
